Version 4.1
SHEET 1 880 680
WIRE 192 48 0 48
WIRE 0 96 0 48
WIRE 192 144 192 128
WIRE 288 144 192 144
WIRE 288 160 288 144
WIRE 0 224 0 176
WIRE 16 224 0 224
WIRE 192 224 16 224
WIRE 288 224 192 224
WIRE 16 240 16 224
FLAG 16 240 0
SYMBOL res 208 144 R180
WINDOW 0 36 76 Left 2
WINDOW 3 36 40 Left 2
SYMATTR InstName R1
SYMATTR Value 10k
SYMBOL res 208 240 R180
WINDOW 0 36 76 Left 2
WINDOW 3 36 40 Left 2
SYMATTR InstName R2
SYMATTR Value 10k
SYMBOL cap 272 160 R0
SYMATTR InstName C1
SYMATTR Value 100nF
SYMBOL voltage 0 80 R0
WINDOW 123 24 124 Left 2
WINDOW 39 0 0 Left 0
SYMATTR InstName V1
SYMATTR Value 5
SYMATTR Value2 AC 1
TEXT -24 8 Left 2 !.ac dec 100 1 10Meg
